electric-grid/physical/reference/ieee-30bus/ieee 30 bus.raw
 0,    100.00, 33, 0, 0, 60.00       / October 01, 2013 18:40:50
 08/20/93 UW ARCHIVE           100.0  1961 W IEEE 30 Bus Test Case

    1,'Glen Lyn    ', 132.0000,3,   1,   1,   1,1.06000,  98.4316
    2,'Claytor     ', 132.0000,2,   1,   1,   1,1.04313,  93.0798
    3,'Kumis       ', 132.0000,1,   1,   1,   1,1.02074,  90.8996
    4,'Hancock     ', 132.0000,1,   1,   1,   1,1.01176,  89.1475
    5,'Fieldale    ', 132.0000,2,   1,   1,   1,1.01000,  84.2658
    6,'Roanoke     ', 132.0000,1,   1,   1,   1,1.01026,  87.3670
    7,'Blaine      ', 132.0000,1,   1,   1,   1,1.00238,  85.5665
    8,'Reusens     ', 132.0000,2,   1,   1,   1,1.01000,  86.6183
    9,'Roanoke     ',   1.0000,1,   1,   1,   1,1.05091,  84.3227
   10,'Roanoke     ',  33.0000,1,   1,   1,   1,1.04513,  82.7320
   11,'Roanoke     ',  11.0000,2,   1,   1,   1,1.08200,  84.3227
   12,'Hancock     ',  33.0000,1,   1,   1,   1,1.05712,  83.4883
   13,'Hancock     ',  11.0000,2,   1,   1,   1,1.07100,  83.4883
   14,'Bus 14      ',  33.0000,1,   1,   1,   1,1.04228,  82.5962
   15,'Bus 15      ',  33.0000,1,   1,   1,   1,1.03768,  82.5042
   16,'Bus 16      ',  33.0000,1,   1,   1,   1,1.04439,  82.9053
   17,'Bus 17      ',  33.0000,1,   1,   1,   1,1.03990,  82.5702
   18,'Bus 18      ',  33.0000,1,   1,   1,   1,1.02815,  81.8899
   19,'Bus 19      ',  33.0000,1,   1,   1,   1,1.02565,  81.7162
   20,'Bus 20      ',  33.0000,1,   1,   1,   1,1.02974,  81.9128
   21,'Bus 21      ',  33.0000,1,   1,   1,   1,1.03273,  82.2893
   22,'Bus 22      ',  33.0000,1,   1,   1,   1,1.03326,  82.3035
   23,'Bus 23      ',  33.0000,1,   1,   1,   1,1.02718,  82.1135
   24,'Bus 24      ',  33.0000,1,   1,   1,   1,1.02158,  81.9370
   25,'Bus 25      ',  33.0000,1,   1,   1,   1,1.01734,  82.3648
   26,'Bus 26      ',  33.0000,1,   1,   1,   1,0.99966,  81.9452
   27,'Cloverdl    ',  33.0000,1,   1,   1,   1,1.02325,  82.8892
   28,'Cloverdl    ', 132.0000,1,   1,   1,   1,1.00682,  86.7432
   29,'Bus 29      ',  33.0000,1,   1,   1,   1,1.00341,  81.6593
   30,'Bus 30      ',  33.0000,1,   1,   1,   1,0.99194,  80.7765
0 / END OF BUS DATA, BEGIN LOAD DATA
    2,'1 ',1,   1,   1,    21.700,    12.700,     0.000,     0.000,     0.000,    -0.000,   1,1
    3,'1 ',1,   1,   1,     2.400,     1.200,     0.000,     0.000,     0.000,    -0.000,   1,1
    4,'1 ',1,   1,   1,     7.600,     1.600,     0.000,     0.000,     0.000,    -0.000,   1,1
    5,'1 ',1,   1,   1,    94.200,    19.000,     0.000,     0.000,     0.000,    -0.000,   1,1
    7,'1 ',1,   1,   1,    22.800,    10.900,     0.000,     0.000,     0.000,    -0.000,   1,1
    8,'1 ',1,   1,   1,    30.000,    30.000,     0.000,     0.000,     0.000,    -0.000,   1,1
   10,'1 ',1,   1,   1,     5.800,     2.000,     0.000,     0.000,     0.000,    -0.000,   1,1
   12,'1 ',1,   1,   1,    11.200,     7.500,     0.000,     0.000,     0.000,    -0.000,   1,1
   14,'1 ',1,   1,   1,     6.200,     1.600,     0.000,     0.000,     0.000,    -0.000,   1,1
   15,'1 ',1,   1,   1,     8.200,     2.500,     0.000,     0.000,     0.000,    -0.000,   1,1
   16,'1 ',1,   1,   1,     3.500,     1.800,     0.000,     0.000,     0.000,    -0.000,   1,1
   17,'1 ',1,   1,   1,     9.000,     5.800,     0.000,     0.000,     0.000,    -0.000,   1,1
   18,'1 ',1,   1,   1,     3.200,     0.900,     0.000,     0.000,     0.000,    -0.000,   1,1
   19,'1 ',1,   1,   1,     9.500,     3.400,     0.000,     0.000,     0.000,    -0.000,   1,1
   20,'1 ',1,   1,   1,     2.200,     0.700,     0.000,     0.000,     0.000,    -0.000,   1,1
   21,'1 ',1,   1,   1,    17.500,    11.200,     0.000,     0.000,     0.000,    -0.000,   1,1
   23,'1 ',1,   1,   1,     3.200,     1.600,     0.000,     0.000,     0.000,    -0.000,   1,1
   24,'1 ',1,   1,   1,     8.700,     6.700,     0.000,     0.000,     0.000,    -0.000,   1,1
   26,'1 ',1,   1,   1,     3.500,     2.300,     0.000,     0.000,     0.000,    -0.000,   1,1
   29,'1 ',1,   1,   1,     2.400,     0.900,     0.000,     0.000,     0.000,    -0.000,   1,1
   30,'1 ',1,   1,   1,    10.600,     1.900,     0.000,     0.000,     0.000,    -0.000,   1,1
0 / END OF LOAD DATA, BEGIN FIXED SHUNT DATA
    10,' 1', 1,     0.000,    19.000
    24,' 1', 1,     0.000,     4.300
0 / END OF FIXED SHUNT DATA, BEGIN GENERATOR DATA
    1,'1 ',   260.948,   -16.787,     0.000,     0.000,1.06000,    0,   100.000,   0.00000,   1.00000,   0.00000,   0.00000,1.00000,1,  100.0, 10000.000,-10000.000,   1,1.0000,   0,1.0000,   0,1.0000,   0,1.0000,0, 1.0000
    2,'1 ',    40.000,    50.000,    50.000,   -40.000,1.04500,    0,   100.000,   0.00000,   1.00000,   0.00000,   0.00000,1.00000,1,  100.0, 10000.000,-10000.000,   1,1.0000,   0,1.0000,   0,1.0000,   0,1.0000,0, 1.0000
    5,'1 ',     0.000,    36.850,    40.000,   -40.000,1.01000,    0,   100.000,   0.00000,   1.00000,   0.00000,   0.00000,1.00000,1,  100.0, 10000.000,-10000.000,   1,1.0000,   0,1.0000,   0,1.0000,   0,1.0000,0, 1.0000
    8,'1 ',     0.000,    37.144,    40.000,   -10.000,1.01000,    0,   100.000,   0.00000,   1.00000,   0.00000,   0.00000,1.00000,1,  100.0, 10000.000,-10000.000,   1,1.0000,   0,1.0000,   0,1.0000,   0,1.0000,0, 1.0000
   11,'1 ',     0.000,    16.172,    24.000,    -6.000,1.08200,    0,   100.000,   0.00000,   1.00000,   0.00000,   0.00000,1.00000,1,  100.0, 10000.000,-10000.000,   1,1.0000,   0,1.0000,   0,1.0000,   0,1.0000,0, 1.0000
   13,'1 ',     0.000,    10.619,    24.000,    -6.000,1.07100,    0,   100.000,   0.00000,   1.00000,   0.00000,   0.00000,1.00000,1,  100.0, 10000.000,-10000.000,   1,1.0000,   0,1.0000,   0,1.0000,   0,1.0000,0, 1.0000
0 / END OF GENERATOR DATA, BEGIN BRANCH DATA
    1,     2,'1 ', 0.01920, 0.05750,0.05280, 130.00,   0.00,   0.00,  0.00000,  0.00000,  0.00000,  0.00000,1,1,   0.0,   1,1.0000,   0,1.0000,   0,1.0000,   0,1.0000
    1,     3,'1 ', 0.04520, 0.16520,0.04080, 130.00,   0.00,   0.00,  0.00000,  0.00000,  0.00000,  0.00000,1,1,   0.0,   1,1.0000,   0,1.0000,   0,1.0000,   0,1.0000
    2,     4,'1 ', 0.05700, 0.17370,0.03680,  65.00,   0.00,   0.00,  0.00000,  0.00000,  0.00000,  0.00000,1,1,   0.0,   1,1.0000,   0,1.0000,   0,1.0000,   0,1.0000
    2,     5,'1 ', 0.04720, 0.19830,0.04180, 130.00,   0.00,   0.00,  0.00000,  0.00000,  0.00000,  0.00000,1,1,   0.0,   1,1.0000,   0,1.0000,   0,1.0000,   0,1.0000
    2,     6,'1 ', 0.05810, 0.17630,0.03740,  65.00,   0.00,   0.00,  0.00000,  0.00000,  0.00000,  0.00000,1,1,   0.0,   1,1.0000,   0,1.0000,   0,1.0000,   0,1.0000
    3,     4,'1 ', 0.01320, 0.03790,0.00840, 130.00,   0.00,   0.00,  0.00000,  0.00000,  0.00000,  0.00000,1,1,   0.0,   1,1.0000,   0,1.0000,   0,1.0000,   0,1.0000
    4,     6,'1 ', 0.01190, 0.04140,0.00900,  90.00,   0.00,   0.00,  0.00000,  0.00000,  0.00000,  0.00000,1,1,   0.0,   1,1.0000,   0,1.0000,   0,1.0000,   0,1.0000
    5,     7,'1 ', 0.04600, 0.11600,0.02040,  70.00,   0.00,   0.00,  0.00000,  0.00000,  0.00000,  0.00000,1,1,   0.0,   1,1.0000,   0,1.0000,   0,1.0000,   0,1.0000
    6,     7,'1 ', 0.02670, 0.08200,0.01700, 130.00,   0.00,   0.00,  0.00000,  0.00000,  0.00000,  0.00000,1,1,   0.0,   1,1.0000,   0,1.0000,   0,1.0000,   0,1.0000
    6,     8,'1 ', 0.01200, 0.04200,0.00900,  32.00,   0.00,   0.00,  0.00000,  0.00000,  0.00000,  0.00000,1,1,   0.0,   1,1.0000,   0,1.0000,   0,1.0000,   0,1.0000
    6,    28,'1 ', 0.01690, 0.05990,0.01300,   0.00,   0.00,   0.00,  0.00000,  0.00000,  0.00000,  0.00000,1,1,   0.0,   1,1.0000,   0,1.0000,   0,1.0000,   0,1.0000
    8,    28,'1 ', 0.06360, 0.20000,0.04280,   0.00,   0.00,   0.00,  0.00000,  0.00000,  0.00000,  0.00000,1,1,   0.0,   1,1.0000,   0,1.0000,   0,1.0000,   0,1.0000
    9,    10,'1 ', 0.00000, 0.11000,0.00000,   0.00,   0.00,   0.00,  0.00000,  0.00000,  0.00000,  0.00000,1,1,   0.0,   1,1.0000,   0,1.0000,   0,1.0000,   0,1.0000
    9,    11,'1 ', 0.00000, 0.20800,0.00000,  65.00,   0.00,   0.00,  0.00000,  0.00000,  0.00000,  0.00000,1,1,   0.0,   1,1.0000,   0,1.0000,   0,1.0000,   0,1.0000
   10,    17,'1 ', 0.03240, 0.08450,0.00000,   0.00,   0.00,   0.00,  0.00000,  0.00000,  0.00000,  0.00000,1,1,   0.0,   1,1.0000,   0,1.0000,   0,1.0000,   0,1.0000
   10,    20,'1 ', 0.09360, 0.20900,0.00000,  32.00,   0.00,   0.00,  0.00000,  0.00000,  0.00000,  0.00000,1,1,   0.0,   1,1.0000,   0,1.0000,   0,1.0000,   0,1.0000
   10,    21,'1 ', 0.03480, 0.07490,0.00000,   0.00,   0.00,   0.00,  0.00000,  0.00000,  0.00000,  0.00000,1,1,   0.0,   1,1.0000,   0,1.0000,   0,1.0000,   0,1.0000
   10,    22,'1 ', 0.07270, 0.14990,0.00000,   0.00,   0.00,   0.00,  0.00000,  0.00000,  0.00000,  0.00000,1,1,   0.0,   1,1.0000,   0,1.0000,   0,1.0000,   0,1.0000
   12,    13,'1 ', 0.00000, 0.14000,0.00000,  65.00,   0.00,   0.00,  0.00000,  0.00000,  0.00000,  0.00000,1,1,   0.0,   1,1.0000,   0,1.0000,   0,1.0000,   0,1.0000
   12,    14,'1 ', 0.12310, 0.25590,0.00000,   0.00,   0.00,   0.00,  0.00000,  0.00000,  0.00000,  0.00000,1,1,   0.0,   1,1.0000,   0,1.0000,   0,1.0000,   0,1.0000
   12,    15,'1 ', 0.06620, 0.13040,0.00000,  32.00,   0.00,   0.00,  0.00000,  0.00000,  0.00000,  0.00000,1,1,   0.0,   1,1.0000,   0,1.0000,   0,1.0000,   0,1.0000
   12,    16,'1 ', 0.09450, 0.19870,0.00000,  16.00,   0.00,   0.00,  0.00000,  0.00000,  0.00000,  0.00000,1,1,   0.0,   1,1.0000,   0,1.0000,   0,1.0000,   0,1.0000
   14,    15,'1 ', 0.22100, 0.19970,0.00000,  16.00,   0.00,   0.00,  0.00000,  0.00000,  0.00000,  0.00000,1,1,   0.0,   1,1.0000,   0,1.0000,   0,1.0000,   0,1.0000
   15,    18,'1 ', 0.10730, 0.21850,0.00000,  16.00,   0.00,   0.00,  0.00000,  0.00000,  0.00000,  0.00000,1,1,   0.0,   1,1.0000,   0,1.0000,   0,1.0000,   0,1.0000
   15,    23,'1 ', 0.10000, 0.20200,0.00000,   0.00,   0.00,   0.00,  0.00000,  0.00000,  0.00000,  0.00000,1,1,   0.0,   1,1.0000,   0,1.0000,   0,1.0000,   0,1.0000
   16,    17,'1 ', 0.05240, 0.19230,0.00000,  16.00,   0.00,   0.00,  0.00000,  0.00000,  0.00000,  0.00000,1,1,   0.0,   1,1.0000,   0,1.0000,   0,1.0000,   0,1.0000
   18,    19,'1 ', 0.06390, 0.12920,0.00000,  16.00,   0.00,   0.00,  0.00000,  0.00000,  0.00000,  0.00000,1,1,   0.0,   1,1.0000,   0,1.0000,   0,1.0000,   0,1.0000
   19,    20,'1 ', 0.03400, 0.06800,0.00000,  16.00,   0.00,   0.00,  0.00000,  0.00000,  0.00000,  0.00000,1,1,   0.0,   1,1.0000,   0,1.0000,   0,1.0000,   0,1.0000
   21,    22,'1 ', 0.01160, 0.02360,0.00000,   0.00,   0.00,   0.00,  0.00000,  0.00000,  0.00000,  0.00000,1,1,   0.0,   1,1.0000,   0,1.0000,   0,1.0000,   0,1.0000
   22,    24,'1 ', 0.11500, 0.17900,0.00000,   0.00,   0.00,   0.00,  0.00000,  0.00000,  0.00000,  0.00000,1,1,   0.0,   1,1.0000,   0,1.0000,   0,1.0000,   0,1.0000
   23,    24,'1 ', 0.13200, 0.27000,0.00000,   0.00,   0.00,   0.00,  0.00000,  0.00000,  0.00000,  0.00000,1,1,   0.0,   1,1.0000,   0,1.0000,   0,1.0000,   0,1.0000
   24,    25,'1 ', 0.18850, 0.32920,0.00000,   0.00,   0.00,   0.00,  0.00000,  0.00000,  0.00000,  0.00000,1,1,   0.0,   1,1.0000,   0,1.0000,   0,1.0000,   0,1.0000
   25,    26,'1 ', 0.25440, 0.38000,0.00000,   0.00,   0.00,   0.00,  0.00000,  0.00000,  0.00000,  0.00000,1,1,   0.0,   1,1.0000,   0,1.0000,   0,1.0000,   0,1.0000
   25,    27,'1 ', 0.10930, 0.20870,0.00000,   0.00,   0.00,   0.00,  0.00000,  0.00000,  0.00000,  0.00000,1,1,   0.0,   1,1.0000,   0,1.0000,   0,1.0000,   0,1.0000
   27,    29,'1 ', 0.21980, 0.41530,0.00000,   0.00,   0.00,   0.00,  0.00000,  0.00000,  0.00000,  0.00000,1,1,   0.0,   1,1.0000,   0,1.0000,   0,1.0000,   0,1.0000
   27,    30,'1 ', 0.32020, 0.60270,0.00000,   0.00,   0.00,   0.00,  0.00000,  0.00000,  0.00000,  0.00000,1,1,   0.0,   1,1.0000,   0,1.0000,   0,1.0000,   0,1.0000
   29,    30,'1 ', 0.23990, 0.45330,0.00000,   0.00,   0.00,   0.00,  0.00000,  0.00000,  0.00000,  0.00000,1,1,   0.0,   1,1.0000,   0,1.0000,   0,1.0000,   0,1.0000
0 / END OF BRANCH DATA, BEGIN TRANSFORMER DATA
    4,   12,    0,'1 ',1,1,1,  0.00000,  0.00000,2,'        ',1,   1,1.0000,   0,1.0000,   0,1.0000,   0,1.0000
 0.00000, 0.25600, 100.00
0.93200,  0.000,   0.000,  65.00,   0.00,   0.00,0,     0, 1.50000, 0.51000, 1.50000, 0.51000,159, 0, 0.00000, 0.00000
1.00000,  0.000
    6,    9,    0,'1 ',1,1,1,  0.00000,  0.00000,2,'        ',1,   1,1.0000,   0,1.0000,   0,1.0000,   0,1.0000
 0.00000, 0.20800, 100.00
0.97800,  0.000,   0.000,  65.00,   0.00,   0.00,0,     0, 1.50000, 0.51000, 1.50000, 0.51000,159, 0, 0.00000, 0.00000
1.00000,  0.000
    6,   10,    0,'1 ',1,1,1,  0.00000,  0.00000,2,'        ',1,   1,1.0000,   0,1.0000,   0,1.0000,   0,1.0000
 0.00000, 0.55600, 100.00
0.96900,  0.000,   0.000,  32.00,   0.00,   0.00,0,     0, 1.50000, 0.51000, 1.50000, 0.51000,159, 0, 0.00000, 0.00000
1.00000,  0.000
   28,   27,    0,'1 ',1,1,1,  0.00000,  0.00000,2,'        ',1,   1,1.0000,   0,1.0000,   0,1.0000,   0,1.0000
 0.00000, 0.39600, 100.00
0.96800,  0.000,   0.000,   0.00,   0.00,   0.00,0,     0, 1.50000, 0.51000, 1.50000, 0.51000,159, 0, 0.00000, 0.00000
1.00000,  0.000
0 / END OF TRANSFORMER DATA, BEGIN AREA DATA
   1,    0,     0.000,     1.000,'1           '
0 / END OF AREA DATA, BEGIN TWO-TERMINAL DC DATA
0 / END OF TWO-TERMINAL DC DATA, BEGIN VOLTAGE SOURCE CONVERTER DATA
0 / END OF VOLTAGE SOURCE CONVERTER DATA, BEGIN IMPEDANCE CORRECTION DATA
0 / END OF IMPEDANCE CORRECTION DATA, BEGIN MULTI-TERMINAL DC DATA
0 / END OF MULTI-TERMINAL DC DATA, BEGIN MULTI-SECTION LINE DATA
0 / END OF MULTI-SECTION LINE DATA, BEGIN ZONE DATA
   1,'IEEE 30 '
0 / END OF ZONE DATA, BEGIN INTER-AREA TRANSFER DATA
0 / END OF INTER-AREA TRANSFER DATA, BEGIN OWNER DATA
    1,'1'
0 / END OF OWNER DATA, BEGIN FACTS CONTROL DEVICE DATA
0 / END OF FACTS CONTROL DEVICE DATA, BEGIN SWITCHED SHUNT DATA
0 /END OF SWITCHED SHUNT DATA, BEGIN GNE DEVICE DATA
0 /END OF GNE DEVICE DATA
Q
